test/testfiles/eolcomments.raw
0,100.0,30 / PSS(tm)E-30 RAW created      Thu, Oct 13 2018 13:08
   SEP 2018 V2 MODEL
   MADE ON 13-Oct-2018 13:08@
 10010,'NOBO        ',161.00,1,    0.00,    0.00,327,   1,1.03182,   5.469,  1 /* [NOBO     1   ] */
337918,'3NAUNEPPE-2+',115.00,1,    0.00,    0.00,327,   1,1.01644,   0.679,  1 /* [NAU_E2   1   ] */
0  / end of bus cards
 10010,'T1',1,327,   1,    7.698,    4.063,    9.463,   16.549,   -1.802,    2.043,  1 /* [NOBO     T1                   ] */
